     102
Semi ordered GO 2
  C         0.0133732269        0.0117527595        7.8813144932
  C         2.4739323435        1.4338395751        8.5050455842
  C         1.2088174794        2.2032379761        8.2076199163
  C         3.7290038210        3.6434870785        8.2392402683
  C         2.4622894946        4.3875476899        8.2562348846
  C         4.9325275047        5.8083889461        8.5984583618
  C         3.7870205490        6.5128593839        7.8394171937
  C         6.2522901774        7.9889524172        8.7524355371
  C         4.9562913768        8.7098628489        8.3462935699
  C         7.5219675950       10.1439355435        8.2375182972
  C         6.2590352233       10.8837359424        8.3610755695
  C         8.6869959926       12.3104021230        7.4164078071
  C         2.5068352691        0.0758134436        7.7323876353
  C         4.9581799087        1.4857143782        7.8181587268
  C         3.7179689804        2.2306140322        8.2152029151
  C         6.1877819840        3.6854545949        7.8077946927
  C         4.9404204426        4.3497525095        8.2108689991
  C         7.4395291655        5.8565570371        8.2260734980
  C         6.2594956133        6.5072355596        8.4188947449
  C         8.8044589583        8.0581233644        8.4725822842
  C         7.4457420850        8.6429389197        7.9938980955
  C        10.0032664886       10.0911853472        7.6642851785
  C         8.7376783085       10.7937380555        7.6084920845
  C        11.1997105837       12.3230437102        7.1489788220
  C         4.9797262925        0.0598453947        8.4118478435
  C         7.4549948293        1.5165849320        7.3842079552
  C         6.2849150731        2.2154374544        8.1375785112
  C         8.7600751937        3.6383719770        7.8622642860
  C         7.4756223310        4.4296638721        7.7906812616
  C        10.0132987128        5.7706439810        8.3603108210
  C         8.7414204828        6.5220050778        8.5023896997
  C        11.2814957949        7.9280740525        7.9476285634
  C         9.9738526064        8.5965115615        7.5948393889
  C        12.5117002280       10.0662666227        7.3729637915
  C        11.2068629257       10.7865953251        7.1983491959
  C        13.7551597080       12.2718795230        7.6787687712
  C         7.4155989030        0.0404000501        7.7548243486
  C         9.9802564543        1.4838785531        7.6804505099
  C         8.7549368789        2.2339660229        7.7180215125
  C        11.2369009636        3.6254097424        8.0112632271
  C         9.9957173092        4.3230449720        8.0315352220
  C        12.4927217329        5.8013334905        8.1614797064
  C        11.2781107845        6.5259752728        8.1569021189
  C        13.7348235348        7.9491058767        7.9538415168
  C        12.4976507272        8.6388200028        7.8352338662
  C         0.0173126969       10.1313562648        7.8125411119
  C        13.7577756589       10.8476139424        7.6281181312
  C         1.2343356969       12.2776245225        7.9042087545
  C         9.9467378149        0.0833897946        7.4541809984
  C        12.4891290866        1.5076558190        7.7981182190
  C        11.2508650212        2.1949147316        7.8242725372
  C        13.7126108854        3.6437661388        8.1142525002
  C        12.4800283418        4.3489460295        8.1244061907
  C         0.0163061536        5.8043550367        8.1347442251
  C        13.7323641799        6.5196779084        8.0976397396
  C         1.2567485009        7.9751016317        7.9722972764
  C         0.0341288797        8.6718991214        7.8998424935
  C         2.5047266983       10.1289026854        7.9862262406
  C         1.2546607922       10.8515968520        7.8989518989
  C         3.7431293221       12.2805958617        8.0477460227
  C        12.5218042438        0.0781562381        7.3940756634
  C         0.0166202810        1.4921666522        8.0077177191
  C        13.7208821669        2.2040243318        7.9765628430
  C         1.2310538816        3.6502945157        8.2478474967
  C         0.0013226338        4.3659242019        8.1794640846
  C         2.4725921796        5.7931622520        8.1188902375
  C         1.2565992424        6.5167072678        8.0752959079
  C         3.7509616129        8.0005295360        8.1448994999
  C         2.5144606395        8.7040391565        8.0048296982
  C         4.9695125487       10.1299882336        8.2899810776
  C         3.7481516232       10.8620526111        8.0946678490
  C         6.2727038790       12.3471250530        8.0858540629
  H         3.2695380965        0.7583433175       10.1910200377
  H        10.3802102168        8.6756675587        5.6443203258
  H         6.6578331795        8.9649675600       10.4134109047
  H         4.8517591152        6.7587574279        6.1786966008
  H         8.0309844171        8.3966369527        6.1304634907
  H         9.3770925813        7.7738259537       10.2981393653
  H         5.1707968345        6.5395365997       10.4396612013
  H         6.0854280977        1.5031017401        9.9697401226
  H         6.4799673504        1.4612208822        5.7045694711
  H         5.2848536248       -0.6128106822       10.3328473832
  H         3.9882781889        1.0573631745        6.1231380566
  H         2.3558108753       -0.3019709366        5.7355426858
  O         2.3935047852        1.1567137956        9.9313863996
  O         9.6975373548        8.1921384169        6.1758134073
  O         6.3630899236        8.0392987980       10.2005835498
  O         3.9784633660        6.3520497887        6.3992856927
  O         7.1525491309        8.4319241660        6.6109633783
  O         9.0677271824        8.5633024621        9.7843923259
  O         4.6232519357        5.8217814383       10.0262652148
  O         6.5980122682        2.2385813987        9.5344984379
  O         7.4445752030        1.5599179714        5.9432993547
  O         4.9672274287        0.2363094328        9.9448733986
  O         4.9184460230        1.3860141038        6.3686834957
  O         2.5101081114        0.5157065053        6.2627939191
  O        11.9671327660       12.8616631818        6.0481277274
  O         9.3752557929        5.9940579555        9.7207222632
  O        11.8966997379       10.1845189667        6.0187219132
  O         6.7057468204        4.2035281065        6.5447725024
  O         7.1479057818       10.5776440800        9.5794974040
  O         8.5287839955       11.4148245712        6.2703457457
