342
Semi ordered GO 3 in water other
C 1.43931 13.4743 6.75872
C 3.90386 12.0409 6.64354
C 2.69136 11.3195 6.73179
C 5.16284 9.82576 6.68465
C 3.87941 9.16801 6.19081
C 6.44014 7.69877 5.75058
C 5.18113 6.91283 6.00677
C 7.72313 5.43456 5.82902
C 6.42891 4.73804 6.09962
C 8.82692 3.47368 7.1281
C 7.63395 2.62567 6.74552
C 10.1748 1.16003 7.20253
C 3.90772 13.4734 6.66647
C 6.42528 12.0017 6.83052
C 5.18501 11.3232 6.26228
C 7.67839 9.87981 6.56741
C 6.42631 9.16433 6.13698
C 8.87938 7.57942 6.53441
C 7.80592 6.97805 5.55954
C 10.2477 5.50454 6.73866
C 9.05074 4.66096 6.14604
C 11.4712 3.33693 6.92354
C 10.1784 2.69335 7.25156
C 12.6646 1.16167 6.97966
C 6.39863 13.4983 6.95181
C 8.92055 12.0367 6.73643
C 7.70827 11.3504 6.54237
C 10.2441 9.85799 6.34644
C 8.93559 9.12754 6.68275
C 11.4981 7.67875 6.81376
C 10.2934 6.95804 6.2285
C 12.7211 5.49352 7.21445
C 11.5706 4.77409 6.46096
C 13.937 3.34957 6.79758
C 12.6596 2.6219 6.92984
C 15.1464 1.1712 6.78423
C 8.89049 13.4812 6.92245
C 11.4171 12.0201 6.87207
C 10.1916 11.3337 6.73213
C 12.7123 9.87392 6.95911
C 11.3913 9.15039 7.12423
C 13.9578 7.69195 6.93898
C 12.6959 6.99341 6.94351
C 15.1764 5.50205 6.7156
C 13.9849 4.77292 6.83258
C 1.44068 3.34382 6.61592
C 15.1578 2.62637 6.71139
C 2.67102 1.18547 6.67204
C 11.449 13.4555 6.97944
C 13.92 12.0216 6.91941
C 12.6883 11.2977 6.91717
C 15.1717 9.86991 6.85155
C 13.9356 9.16313 6.92652
C 1.45573 7.67635 6.58618
C 15.1648 6.97449 6.77945
C 2.67556 5.4998 6.41225
C 1.44546 4.77935 6.56416
C 3.9146 3.3518 6.48884
C 2.68667 2.63237 6.58716
C 5.13281 1.2037 6.67684
C 13.9208 13.4711 6.89043
C 1.44742 12.038 6.8471
C 15.1674 11.31 6.89578
C 2.64851 9.86662 6.61025
C 1.4524 9.15072 6.66302
C 3.88365 7.66256 6.00255
C 2.63608 6.94769 6.35073
C 5.16153 5.53517 6.2038
C 3.91059 4.79764 6.3646
C 6.42818 3.30108 6.54253
C 5.15343 2.60501 6.54464
C 7.69256 1.20044 6.86326
H 7.71841 7.64764 3.5285
H 8.1588 7.87907 8.36863
H 9.12712 4.56939 8.70587
H 9.86794 10.4057 4.46201
H 11.7817 5.57309 8.93419
H 9.69469 7.06028 4.32111
H 5.21833 8.83542 8.47703
H 5.97204 12.0665 4.49784
H 8.70705 3.8408 4.40208
H 9.49551 6.32711 8.34692
H 11.3884 8.61389 9.10856
H 11.442 5.5096 4.61654
O 8.23494 7.07011 4.20604
O 8.39162 7.07517 7.80383
O 8.41071 3.91967 8.43894
O 10.4636 9.73162 4.94043
O 12.7086 5.32903 8.66779
O 10.5943 6.95657 4.8153
O 5.15501 9.79316 8.11271
O 5.31053 11.3288 4.83003
O 9.51318 4.09306 4.92077
O 10.2189 5.59538 8.2028
O 10.9234 9.2623 8.49025
O 11.9952 4.80309 5.07594
O 3.75481 8.60866 4.85774
O 8.24277 9.48538 7.91895
O 7.02078 4.8129 4.72759
O 10.1809 1.90856 8.47991
O 6.30522 12.6183 8.1454
O 6.36202 8.77581 4.75555
H 14.147 11.1948 3.97561
H 13.0034 10.0539 3.72452
O 13.212 11.0421 3.62146
H 3.1345 8.79468 0.0979294
H 1.56943 8.80141 -0.0959368
O 2.39678 8.28107 -0.342667
H 14.6066 7.83359 3.77053
H 15.9142 6.92859 3.4403
O 15.605 7.80978 3.79504
H 3.09645 10.9525 2.68979
H 4.07718 11.5505 3.78144
O 3.56464 11.7965 2.94912
H 4.51735 7.91281 3.08639
H 3.44226 6.83637 2.75664
O 4.31647 7.18558 2.45007
H 1.20044 9.76875 1.70304
H 1.39844 8.95864 3.06863
O 1.75256 9.77965 2.54988
H 12.593 2.50432 3.02689
H 11.7836 3.30433 4.16416
O 11.7522 2.49738 3.57231
H 11.8736 11.2062 1.00863
H 10.3741 11.641 0.888929
O 10.9572 10.8182 0.905238
H 12.5605 9.69424 -1.4314
H 11.4257 9.73378 -0.377962
O 11.9763 9.08226 -0.910642
H 8.09439 10.8497 0.468629
H 6.90902 11.2673 1.45995
O 7.78209 10.7511 1.42433
H 2.11499 2.47448 3.51086
H 3.6152 2.98135 3.38474
O 2.68597 3.29328 3.56942
H 13.3525 5.26012 2.57292
H 14.8949 5.35177 2.21028
O 13.9735 5.38349 1.81878
H 1.52967 4.10737 0.37077
H 1.87168 2.59632 0.719407
O 1.10577 3.22872 0.563333
H 7.5108 9.19897 1.824
H 7.2632 7.69926 1.23985
O 7.60104 8.21006 2.04931
H -0.271789 10.5259 0.4539
H -0.453877 8.94559 0.612577
O 0.22681 9.6573 0.341389
H 1.18552 10.8827 3.36787
H 1.24478 11.5999 4.81346
O 0.753338 11.633 3.96283
H 6.66197 13.043 2.89011
H 7.81377 12.6307 3.86927
O 6.88543 13.0796 3.84964
H 5.69174 2.21326 2.10578
H 5.9065 2.03762 3.65733
O 5.3165 2.49113 3.0083
H 13.7809 12.6552 1.12261
H 13.4916 11.4458 2.13614
O 13.6073 11.6872 1.13506
H 3.8112 3.01957 -1.38881
H 5.04625 2.35534 -0.496713
O 4.79753 2.83071 -1.35838
H 9.98426 5.28391 2.35486
H 10.8165 6.59204 2.07614
O 10.9383 5.62683 2.31488
H 12.0222 12.2599 3.75251
H 11.5128 13.8166 3.7811
O 11.2775 12.8826 3.51361
H 12.7464 8.15281 0.221063
H 13.5425 6.92847 1.07762
O 13.3345 7.91164 1.01831
H 1.77988 0.888907 2.21818
H 1.07384 0.11762 3.42276
O 1.16635 1.0372 3.00156
H 5.40958 5.85207 2.21685
H 5.61983 4.30957 2.56317
O 5.9003 5.02367 1.93495
H 11.7309 2.71061 0.300282
H 12.7752 1.6565 0.828136
O 11.9823 1.72043 0.212902
H 8.79707 2.90162 2.33761
H 10.0784 2.2408 2.96213
O 9.15013 2.01601 2.66094
H 2.96687 0.5111 0.156598
H 3.71811 1.22787 1.38523
O 2.86043 1.21079 0.905851
H 8.79051 11.2991 2.7368
H 9.91655 12.2063 3.53542
O 9.06402 11.627 3.64763
H 5.77056 0.546612 0.753154
H 6.83674 1.5451 0.0594919
O 5.97321 1.53928 0.613334
H 9.23458 8.18534 1.73923
H 10.5153 9.10526 1.4693
O 10.2189 8.15033 1.47975
H 2.09834 5.59025 1.72701
H 2.10111 4.68842 3.04872
O 1.74612 5.57381 2.67024
H 14.7416 1.59698 2.44808
H 14.4544 2.8242 1.53662
O 13.9624 2.0837 1.98739
H 12.8231 8.20777 2.61998
H 12.0581 8.05369 4.03132
O 12.8983 8.38164 3.61158
H 10.6468 0.747863 0.549593
H 9.44026 0.834363 1.52499
O 9.76261 0.285158 0.723397
H 2.42077 6.60601 -0.0931983
H 3.57191 5.52531 -0.127695
O 2.57392 5.61621 0.0553503
H 10.458 6.39038 -1.36158
H 10.1333 7.36189 -0.0837055
O 9.74631 6.923 -0.904125
H 8.54259 4.42557 0.933856
H 7.51351 4.88408 2.05226
O 8.47941 4.56894 1.92871
H 12.3656 4.5837 -0.246134
H 11.37 4.82632 1.02776
O 11.5034 4.28037 0.16354
H 4.72897 12.0025 2.01156
H 5.13354 11.3701 0.640149
O 5.49293 12.08 1.30089
H 4.35286 10.7552 9.35351
H 3.68798 10.5031 10.7807
O 4.08558 11.2118 10.2023
H 0.542584 8.733 9.84888
H 1.91618 9.06207 10.4709
O 1.50309 8.84146 9.58161
H 3.31433 2.46319 9.69405
H 2.06224 1.57569 9.922
O 3.04024 1.50065 9.743
H 13.9501 11.6643 12.3034
H 13.6785 10.2996 11.5173
O 13.2152 11.1178 11.9
H 7.68677 11.1732 12.7291
H 9.23157 11.5032 13.0079
O 8.46466 10.9315 13.3113
H 4.79385 4.01592 10.0883
H 3.48125 4.9837 9.69531
O 3.79035 4.10582 10.0866
H 11.8903 1.5874 13.0902
H 11.0716 0.612416 12.1061
O 11.568 1.50194 12.1294
H 6.12097 9.42266 12.0673
H 5.01908 8.22297 12.2829
O 5.72533 8.79023 12.7506
H 3.62336 12.8897 12.7147
H 2.06083 12.5849 13.0617
O 3.0007 12.4974 13.4349
H 4.3306 6.37396 12.2806
H 4.12372 7.02043 10.8301
O 3.86703 7.12583 11.7831
H 10.3217 2.98427 9.99072
H 10.7497 2.68264 11.4767
O 10.3423 3.41722 10.8806
H 8.14819 -0.173534 10.1925
H 8.69973 -1.23501 9.11204
O 8.6602 -1.04114 10.0755
H 8.19508 8.02869 10.9093
H 7.88111 6.46178 10.8085
O 7.65226 7.34662 10.3844
H 10.0579 11.9655 11.0965
H 11.4363 11.5869 11.8694
O 10.5705 12.0809 11.9569
H 0.844846 2.81147 12.2577
H 0.393858 2.61152 13.7016
O 0.0654668 2.42455 12.7572
H 9.93203 4.12895 13.9591
H 8.60375 4.45609 13.0853
O 8.94774 3.92921 13.8755
H 11.6227 7.02721 10.9705
H 10.9503 8.46758 11.0876
O 11.6843 7.97566 10.5988
H 5.68533 11.2255 10.9523
H 7.26555 11.0779 10.6833
O 6.54184 10.8654 11.3446
H 14.4206 5.45093 13.044
H 14.089 3.90024 12.8568
O 13.6716 4.79361 13.0845
H 0.786447 -0.471667 11.4263
H 0.276201 0.68348 12.4556
O 0.521785 -0.295104 12.3902
H 2.39168 -1.08083 9.93258
H 1.18572 -2.02498 9.70213
O 1.38994 -1.09508 9.97808
H 6.65297 2.52622 10.4833
H 7.01081 3.58227 9.37004
O 6.40787 3.46364 10.1607
H 0.444897 6.01713 11.3459
H 1.55682 6.82841 12.1379
O 0.582484 6.64845 12.1279
H 7.3839 4.38753 11.1479
H 8.95368 4.35586 11.1988
O 8.17396 4.91715 11.5086
H 2.1764 7.16693 9.3603
H 1.51091 5.73868 9.44841
O 2.39014 6.18959 9.28971
H 5.17394 4.46457 13.3579
H 5.83405 5.86129 13.8979
O 5.01026 5.45128 13.481
H 9.5196 8.12198 12.5359
H 9.06199 9.61236 12.3026
O 9.35094 8.79735 11.7919
H 6.27189 0.672692 11.196
H 7.59717 1.1596 11.9295
O 7.1976 1.03893 11.0041
H 4.01894 0.861784 10.8856
H 4.71514 1.51418 12.1704
O 4.61797 0.62961 11.6826
H 8.48597 2.38372 13.6121
H 8.76348 0.887528 14.09
O 8.1023 1.44362 13.5385
H 2.94309 3.98288 11.4711
H 2.32758 4.59677 12.8297
O 2.40752 3.75588 12.3088
H 0.136561 3.97614 10.12
H -0.804666 5.16139 9.6102
O 0.0568026 4.9856 10.0904
H 14.5245 1.66415 10.0611
H 15.3301 2.3214 8.8787
O 15.3112 2.30927 9.86262
H 13.4009 -0.204865 10.4315
H 12.6877 1.093 10.9546
O 13.2724 0.746784 10.2037
H 2.56955 9.04079 12.6699
H 1.93127 10.4259 12.2473
O 2.51038 9.70839 11.9061
H 7.98925 6.79637 13.9043
H 6.70635 7.72279 13.6079
O 7.06494 7.00408 14.2261
H 13.1969 8.43227 10.835
H 14.5829 8.11007 11.5908
O 14.1435 8.78674 10.9949
H 6.25088 7.42834 9.77263
H 5.34286 6.72168 8.64591
O 5.32168 7.4542 9.30164
H 12.3887 5.33274 12.1735
H 11.1299 4.83017 11.3334
O 11.5118 5.65239 11.7785
H 3.76629 10.9517 13.8734
H 4.8834 9.7721 13.713
O 4.3188 10.2909 14.3894
