     102
Semi ordered GO 5
  C        -0.0332733458       -0.0576371627        8.1090574168
  C         2.4592154106        1.3972352010        8.5193037024
  C         1.2022902251        2.1364840192        8.2374410339
  C         3.7733620785        3.5016752953        7.7769671599
  C         2.4611832156        4.2870435268        7.8472162397
  C         4.9707907892        5.7713690965        8.4766274983
  C         3.7294870321        6.5217272724        8.2283114505
  C         6.2309455234        7.9072843661        7.8488953060
  C         4.9629842606        8.6452553805        7.9290996189
  C         7.4278197072       10.0186629220        7.2832807165
  C         6.1124304264       10.8257070296        7.2695521553
  C         8.6881964363       12.2305818673        7.7527131484
  C         2.4495467628       -0.0913149052        8.3853723654
  C         4.9855432989        1.3613868190        7.9937579958
  C         3.8031036442        2.1585715410        8.5287171721
  C         6.2950414113        3.7056706569        7.7824790521
  C         4.9834499842        4.2894334895        8.2948378019
  C         7.3707502081        5.5701105769        7.7077101846
  C         6.3328324609        6.4984533645        8.4236547663
  C         8.6885493591        7.8495699286        7.6384615663
  C         7.4130469615        8.5552178533        7.5642224240
  C         9.8845243074       10.0415539447        8.1413032150
  C         8.6977191165       10.7561646267        7.5085232545
  C        11.1944162182       12.2002055752        7.8320853804
  C         4.9558931794       -0.0205862324        8.0160915702
  C         7.4598347779        1.4010783286        8.2555531185
  C         6.2597671019        2.1063464927        7.4995130213
  C         8.7755403083        3.5050388907        7.6771653748
  C         7.5959987477        4.2224931189        8.4151588409
  C         9.9761558894        5.6618208607        7.8068910200
  C         8.6929003999        6.3509604795        7.2809001379
  C        11.1281503728        7.8443930743        8.2023368422
  C         9.8567701130        8.5416518977        7.8852141781
  C        12.4543564365       10.0458952335        8.0310434007
  C        11.1889511151       10.7055140515        7.5610230523
  C        13.6733723013       12.2083100699        8.0248915795
  C         7.5021527971       -0.0724980852        7.9204155180
  C         9.9861303354        1.3756121685        8.0010785610
  C         8.7869507737        2.0614271377        8.0445176321
  C        11.2422543664        3.5563391261        8.0729490161
  C        10.0285896648        4.2641613792        7.9311471316
  C        12.4324366923        5.7081675483        8.1447396455
  C        11.1804924418        6.3791264822        8.0119021023
  C        13.7005591646        7.8621654508        8.2157700798
  C        12.4219943325        8.6020349072        8.2979223257
  C        -0.0464636377       10.0325809794        8.1466983436
  C        13.6565388640       10.7470587388        8.0724008448
  C         1.1691886579       12.1827431822        8.1231762618
  C         9.9827064875       -0.0640237999        7.8603882796
  C        12.4542128488        1.4014219532        8.0399167911
  C        11.2391888109        2.1077029542        8.0432256148
  C        13.7165456516        3.5579314107        8.1588065666
  C        12.4683926533        4.2793861035        8.1386752553
  C        -0.0230247673        5.7401076455        8.1991978912
  C        13.6903993527        6.4438705259        8.2089255315
  C         1.2053389796        7.8931864802        8.2021401327
  C        -0.0459704221        8.5919736284        8.1998788945
  C         2.4382748848       10.0370600089        8.0779342829
  C         1.1771673278       10.7399653221        8.1176651383
  C         3.7232489289       12.1742393265        8.1013142939
  C        12.4446837868       -0.0500124355        7.9632288099
  C        -0.0217265444        1.4118782247        8.1697120185
  C        13.7099028735        2.1194144141        8.1207994961
  C         1.2032069668        3.5467404227        8.1190119321
  C        -0.0163347384        4.2711418607        8.1540702247
  C         2.4747767359        5.7756568139        7.9958849007
  C         1.1896465981        6.4705124273        8.2243487852
  C         3.7168008357        7.9060835681        8.1221092036
  C         2.4490029090        8.6243612597        8.1228836770
  C         4.9175411688       10.0257076277        7.7680433119
  C         3.6959879975       10.7730919695        7.9737531720
  C         6.2289910582       12.1074722141        8.1438600447
  H         6.5434285758       12.4095162202       10.0617506275
  H         6.6566619049       11.3604388261        5.4824365779
  H         7.3050481790        4.8357610848       10.2290096851
  H         7.8948175306        3.8786584279        5.9331075092
  H         6.4420440723        7.3681991695       10.2218786709
  H        11.8901629073       10.8559195231        5.7088988430
  H         5.5535854390        2.1147120588        5.7150162057
  H         7.3441166435        2.3671039293       10.0138674227
  H         3.6917486566        3.9868509067        5.9048282010
  H         3.8636664980        1.6301564322       10.3812519017
  H        10.4480683068        9.7280625163        9.9723938958
  H         9.3611041205        6.9018142681        5.5074152119
  O         6.2602316287       11.6298941656        9.5239145939
  O         5.7854246775       11.1909299455        5.9191055408
  O         7.8325822388        4.1058260981        9.8057435493
  O         8.7168384859        3.3948278176        6.2265912664
  O         6.8952839772        6.6226516544        9.7696792801
  O        11.0971011602       10.4425815120        6.1166595107
  O         6.4170889223        1.8335832994        6.1063987786
  O         7.1766234056        1.4344367987        9.6967065314
  O         3.9755745630        3.1662426727        6.3854006328
  O         4.0951989283        2.4667531013        9.9059458684
  O         9.7666813251       10.3128571748        9.5488794187
  O         6.6252818596        4.7469366351        6.6663548091
  O         2.3947914710        0.5731947117        9.7347358571
  O         2.3990904629        5.1209215345        6.6304282933
  O        11.6368343780        8.2540796427        9.5526206273
  O         4.9001601798        4.8397972434        9.6182678987
  O         8.3158093810       10.3623550552        6.1591575868
  O         8.6639783192        6.2869577506        5.8288833561
