     102
Random GO 3
  C         0.0291301635       -0.0105142089        7.6439032980
  C         2.5073156906        1.4121332447        7.7597338869
  C         1.2676174134        2.1288899055        7.7552916511
  C         3.6703193739        3.5355030270        8.2515253786
  C         2.4683733484        4.2841750506        7.9108350833
  C         5.0075476847        5.7687139597        8.1694057720
  C         3.7051045261        6.4878222943        8.4143172815
  C         6.2382593202        7.9643110937        8.0150103133
  C         5.0038523944        8.6756384957        7.9521258718
  C         7.4755090430       10.1021897967        8.1061348638
  C         6.2356493893       10.8182222131        7.9051424910
  C         8.7082075139       12.2552766907        8.1138442235
  C         2.5173626482       -0.0226277312        7.6888522775
  C         4.9916266219        1.4415703373        7.8814347626
  C         3.7393715657        2.1156477599        7.9124785518
  C         6.2809618624        3.5667918788        8.0691355473
  C         5.0564693706        4.3446256515        8.3716397907
  C         7.4596416716        5.7748092640        8.3983724186
  C         6.2548187251        6.4689460935        7.7269590303
  C         8.7045465805        7.9151580134        8.2459418711
  C         7.4575045653        8.6545807043        8.1312301386
  C         9.9426572315       10.1501736936        8.5807070906
  C         8.6833566331       10.8353061959        8.2101386654
  C        11.2083479996       12.3181488709        8.1063912026
  C         4.9872171408       -0.0022745938        7.7748471037
  C         7.5530956281        1.4641343104        7.6848609508
  C         6.2285513227        2.1794626904        7.9097968360
  C         8.7181446585        3.6236881749        8.2187276577
  C         7.5260988299        4.2986910339        8.0593341782
  C        10.0042982341        5.8114393122        8.1211763979
  C         8.7481849802        6.5336097985        8.1754699532
  C        11.2442843915        7.9168452411        8.2554099033
  C         9.9586031001        8.6410192264        8.5383216352
  C        12.4878982759       10.1280575728        8.2393528832
  C        11.2417734155       10.8756348881        8.4371292546
  C        13.6635312836       12.2194712839        7.4935998238
  C         7.4745163474       -0.0313966406        7.9369766914
  C         9.9689512747        1.4107725870        8.4836523748
  C         8.6246677409        2.1405772004        8.5724729822
  C        11.2663127478        3.6398737225        8.2425925157
  C         9.9757309259        4.3709483214        8.5873248042
  C        12.5264303432        5.7973349341        8.2010905844
  C        11.2008957084        6.4730504762        7.9631327157
  C        13.6847861236        7.9803122912        7.5016661412
  C        12.4449146585        8.7161394153        7.8428753044
  C         0.0531348863       10.0991971915        7.9471781362
  C        13.7413818561       10.8893928466        8.3429718823
  C         1.2613717221       12.2576699404        7.6929897636
  C         9.9637484384       -0.0291425988        8.1750395703
  C        12.4909082576        1.4277060562        7.9329533872
  C        11.2800791115        2.1688039870        8.3678057100
  C        13.7079094693        3.5882674831        7.8094948166
  C        12.4515272621        4.2988887699        8.0111109967
  C         0.0477641395        5.7499394888        7.6783059223
  C        13.6590675084        6.4258208450        7.3507917434
  C         1.2720458944        7.9321434552        7.7799250019
  C         0.0547032937        8.6852943719        7.7703866158
  C         2.5528041412       10.1328103616        8.1272279349
  C         1.2530805108       10.8334273564        7.8339883112
  C         3.7672153649       12.2932672706        7.6796980263
  C        12.4382494947        0.0185885575        7.8914513187
  C         0.0335666945        1.4135039046        7.7020565131
  C        13.7096152398        2.1506102716        7.7765810821
  C         1.2744655275        3.5826003525        7.7688946393
  C         0.0086879734        4.3154777598        7.7211111973
  C         2.5690365424        5.7678027461        7.6177654128
  C         1.2420603684        6.4846223656        7.7272310767
  C         3.7456462059        7.9573330125        8.0012299023
  C         2.5307659333        8.6247217778        7.8996146249
  C         5.0264767079       10.0973777765        7.8184403342
  C         3.7457271879       10.7967614693        7.4254341843
  C         6.2567674942       12.2719496822        7.8502717106
  H         4.2639848247       10.9550209037        5.5227567116
  H         2.0327087906        9.9820941064       10.0387062606
  H         8.7612240228        2.6353370492       10.4262998080
  H        13.5026014440       12.5136494788        5.5431415502
  H        12.1712613043        5.7807871795       10.1471519549
  H        12.8973755917        6.8505111433        5.6235888610
  H         7.9942310083        5.4088631774       10.2341991495
  H         7.3755176115        1.2557934095        5.7220064613
  H         5.5256993661        6.4332186973        5.8873374664
  H        13.4545026502       10.7602727917       10.2969884311
  H         3.5902013069        5.6145314161       10.1743966452
  H         2.3143768689        5.5417404056        5.6499198332
  O         3.4983374359       10.5685582084        6.0006288748
  O         2.8024201193       10.3546460401        9.5530188661
  O         8.1571403639        2.0214330789        9.9272787354
  O        13.5307000065       11.7270904550        6.1323892385
  O        12.9310689630        6.0642620747        9.5817941434
  O        13.4541084688        6.1000486744        5.9636648467
  O         7.1814059952        5.8368155714        9.8319719315
  O         8.0376636303        1.6667555234        6.3184108834
  O         6.4180741823        6.2874705451        6.2818836407
  O        13.9386459086       11.3882928404        9.7130222866
  O         3.3839306740        6.5206496844        9.8287501102
  O         3.0359491270        5.8929524709        6.2189702393
  O        10.5594624095       10.6868144259        9.7772705605
  O         4.2883784065        3.8872410394        9.5288879460
  O         9.7979682003        4.4485867212       10.0012797841
  O        10.7816863797        1.6918647873        9.6604935260
  O        12.8773850270        8.5454121285        6.3992971740
  O        10.7861968612        8.1442389432        9.6245969144
