102
Random GO 1
C 0.015071 -0.0215511 8.17583
C 2.51947 1.39902 8.03099
C 1.29098 2.08514 8.09682
C 3.77027 3.50727 7.84715
C 2.48572 4.21332 7.44926
C 4.99032 5.74481 7.92976
C 3.77281 6.45044 7.78973
C 6.24152 7.82864 7.90158
C 5.02782 8.57266 7.83185
C 7.53009 10.0286 8.20998
C 6.25012 10.7607 7.99042
C 8.80329 12.2031 8.15103
C 2.56 -0.0218972 8.09838
C 5.01708 1.4089 8.51707
C 3.76596 2.14944 8.05382
C 6.23776 3.59685 8.52867
C 4.96575 4.29734 8.21957
C 7.49986 5.61509 7.6643
C 6.23139 6.42499 7.87227
C 8.76517 7.79666 7.84043
C 7.5197 8.53707 8.13632
C 10.019 10.0622 7.8823
C 8.81415 10.7726 8.03336
C 11.2803 12.1779 8.11183
C 5.0304 -0.0540883 8.10413
C 7.55187 1.39582 8.27355
C 6.27078 2.15614 7.99589
C 8.79003 3.55939 8.30131
C 7.56243 4.39571 8.61379
C 10.0241 5.66433 7.8347
C 8.78127 6.42038 7.77702
C 11.2961 7.85049 7.56216
C 10.0016 8.59115 7.60728
C 12.5392 10.0482 7.81637
C 11.2752 10.7467 7.92087
C 13.7624 12.1868 8.14428
C 7.53244 -0.00619105 8.19546
C 10.0551 1.42097 8.26873
C 8.77564 2.14948 8.30661
C 11.3183 3.61482 8.48587
C 10.0053 4.29188 8.13416
C 12.4975 5.70308 7.80819
C 11.3033 6.37436 7.76728
C 13.746 7.87014 7.74814
C 12.5721 8.58842 7.72578
C 0.0206691 10.065 7.64793
C 13.7492 10.771 7.91799
C 1.29473 12.2069 8.3076
C 10.0363 -0.0398972 8.1812
C 12.5148 1.38308 8.49261
C 11.2478 2.1095 8.33694
C 13.8151 3.56617 8.00393
C 12.4834 4.19477 7.64232
C -0.00872538 5.67824 7.36848
C 13.8006 6.39864 8.06343
C 1.31501 7.87386 7.96279
C 0.0194708 8.56802 7.54778
C 2.57897 10.0331 7.71593
C 1.31933 10.6752 8.08937
C 3.78825 12.1935 8.03597
C 12.5214 -0.0724837 8.23917
C 0.0631494 1.37771 8.16852
C 13.8184 2.1384 8.41121
C 1.30134 3.59666 8.25297
C -0.00919199 4.2299 7.83778
C 2.50041 5.7191 7.67425
C 1.30879 6.3864 7.65729
C 3.81184 7.86599 7.69954
C 2.54252 8.57775 7.29548
C 5.05123 10.0411 7.87084
C 3.77764 10.7397 7.86615
C 6.26478 12.2067 8.07784
H 13.2905 6.04035 9.97138
H 12.8688 4.35693 5.73009
H 0.711413 7.56974 9.81218
H 0.49096 5.3111 5.51523
H 6.77937 2.94424 6.24799
H 4.93604 2.25613 10.2762
H 6.8449 4.89101 10.3453
H 12.1817 3.27439 10.2172
H 1.68807 8.86987 5.56433
H 7.47924 5.73793 5.66981
H 3.01287 3.96177 5.54299
H 1.00788 4.67031 9.88744
O 14.1329 6.27735 9.51396
O 12.1983 3.85656 6.25642
O 1.46512 8.05584 9.39378
O -0.290287 5.7485 5.93889
O 6.15041 2.24238 6.54874
O 5.03273 1.32079 9.96298
O 7.75357 4.88643 9.94808
O 11.5468 3.96751 9.88832
O 2.51331 8.4047 5.85431
O 7.44039 5.0098 6.32811
O 2.16335 3.95625 6.03641
O 1.51439 3.85217 9.66975
O 1.28178 11.2419 9.41285
O 10.6255 8.24589 6.30699
O 7.55151 9.21657 9.45405
O 0.0715232 9.40941 6.3378
O 13.2449 1.83056 9.74322
O 5.39249 3.93866 9.66466
