68
Coordinates from ORCA-job GO_layer_pub_full
  C   7.68885223888792      0.76512630227603      1.23810769988386
  C   7.68886541282553      0.76527507941864     -1.23804312065472
  C   7.69238281935618     -0.67112863740176     -1.23806744873120
  C   7.69238754511340     -0.67127705060340      1.23794546993898
  C   7.70179161530286     -1.38776181134508     -0.00010641587610
  C   7.69444560393647      1.48193572829558      0.00007771027880
  C   7.68899279425599      1.48525669310235      2.48289558148712
  C   7.68905054340575      1.48555429229589     -2.48274493169098
  C   7.69433368201373     -1.39134582180602     -2.48300854877283
  C   7.69437750209482     -1.39164186322031      2.48280155654429
  C   7.70617069255983     -2.82734048851113     -0.00020055740945
  C   7.69531311736427      2.92150531028563      0.00017146529093
  C   7.69015571056747      2.92116341314574     -2.49012974476395
  C   7.69003703571114      2.92086907220794      2.49046305148869
  C   7.69445946161669      3.64076508313018     -1.24199226421649
  C   7.69441574909020      3.64063207113572      1.24241258141359
  C   7.70692773082360     -3.54637755003100     -1.24230652915831
  C   7.70696365150222     -3.54650735014434      1.24182978344071
  C   7.70014003235174     -2.82671947479904     -2.49048956166580
  C   7.70024832958050     -2.82701149421927      2.49009946969915
  C   7.68782552337074      0.76595396129560      3.72340666090444
  C   7.68787444529304      0.76640926811820     -3.72334685381033
  C   7.69030281853597     -0.67261606081801      3.72325390017591
  C   7.69027452815869     -0.67216106398059     -3.72336952298917
  C   7.68359040616649      2.92935124695153      4.98802953187493
  C   7.68386601516524      2.92996161304410     -4.98770207223953
  C   7.69294277357516     -2.83553235208636     -4.98816016139667
  C   7.69320250200635     -2.83614111711874      4.98777705660631
  C   7.71528714661106     -5.72071530378912     -0.00038418418738
  C   7.69663735200128      5.81506360815047      0.00035486635674
  C   7.68768839133373      3.62968831240646      3.76932475213090
  C   7.68799024613660      3.63013757561154     -3.76890746087822
  C   7.68902448640102     -1.42885863905747     -4.97000299056561
  C   7.68912236094539     -1.42946799592263      4.96979573466524
  C   7.68437523444695      1.52316965410656     -4.96969080651137
  C   7.68425118966716      1.52255978916267      4.96984265682975
  C   7.69990409290764     -3.53604568200630      3.76884045793410
  C   7.69960512465515     -3.53559977995153     -3.76931399287938
  C   7.71336586802688     -5.00963080359265      1.20965309501188
  C   7.71310055253625     -5.00952446049644     -1.21032883624958
  C   7.69645156028242      5.10387751351062      1.21033789073084
  C   7.69670058836745      5.10398987533598     -1.20972041463514
  C   7.69134277316446      5.02990450411302     -3.59320637270330
  C   7.69083356122974      5.02948732692946      3.59383912065067
  C   7.69635640018772      5.65415412281265     -2.51093999320951
  C   7.69583436034447      5.65382531684357      2.51163058534345
  C   7.71396548348309     -5.55957967529977     -2.51159833835719
  C   7.71452225357259     -5.55990796099630      2.51084893901019
  C   7.70696850809562     -4.93541653659946     -3.59387413420139
  C   7.70749934606979     -4.93582846356794      3.59318059688016
  C   7.68252783473191      0.67308853649734      6.10441205995111
  C   7.68259867740524      0.67384324084401     -6.10436791065113
  C   7.68443316392914     -0.57937823252995      6.10364389054426
  C   7.68439796316491     -0.57862390042281     -6.10374323439642
  O   5.13312264365898     -0.03315658730925     -0.00002246493304
  O   7.69164970712537     -3.53350232719981     -6.14069492024103
  O   7.69204752420872     -3.53426450995441      6.14022194450756
  O   7.68023522334513      3.62682846515886      6.14074891845361
  O   7.68064681955537      3.62759090365391     -6.14033223864053
  O   7.76394680061365      7.18269164771751      0.00062761022832
  O   7.78624319234805     -7.08813054019314     -0.00067923909422
  H   4.15270216718967      0.06182214448190     -0.00001810545102
  H   7.69011152312436     -2.89122967805696     -6.88066445066979
  H   7.69047790426675     -2.89208721121792      6.88027494528074
  H   7.68172018851643      2.98400591560114      6.88032274723753
  H   7.68210810044368      2.98486247678143     -6.87998870412274
  H   6.86002374569841      7.55025253551409     -0.00692918900926
  H   6.88327765957530     -7.45802817568740      0.00790338418800
