179
Coordinates from ORCA-job 5c_noH_FeII_opt
  C   -5.39046806681442      1.15785235033090      0.18818894457426
  C   -5.26004877836876     -0.86747013379503     -1.21949429368484
  C   -5.92484722193406     -1.61654576372188     -0.20414476539171
  C   -6.05959505532838      0.41049004054136      1.20218127111355
  C   5.01878484134364     -0.37883877447587      1.09299511116453
  C   6.15083395970858      1.59744556888061      0.13167768775632
  C   6.33792603640770      0.89431008402328     -1.09512531194951
  C   5.20183611435951     -1.08070503553434     -0.13493697870420
  C   -4.99602944285459      0.52122370449607     -1.02528553312545
  C   5.85883915107443     -0.44330694401585     -1.22985762130716
  C   5.48767754576369      0.96224907248712      1.22403474899474
  C   -6.32915956502887     -0.97659449144832      1.00588722599198
  C   -5.09458594325003      2.54183393575927      0.39890222970745
  C   -4.83303601205647     -1.51678145972387     -2.42170002243176
  C   -6.17777334086567     -3.01315760506652     -0.39406795750746
  C   -6.45291445603015      1.04955584542906      2.42137984247028
  C   4.33636468252921     -1.00851022815928      2.18101490937818
  C   6.62345180550694      2.94239714885996      0.26406168210730
  C   7.00049590780512      1.53331615492125     -2.19186117178664
  C   4.70386990585589     -2.41412382682343     -0.27805845836974
  C   -4.30290035267253      1.26464869408648     -2.03121713337585
  C   6.03120766768341     -1.14247532700899     -2.46704409450986
  C   5.28168983907828      1.67633121929424      2.44748994836603
  C   -6.99694996721720     -1.72794083794669      2.02507356008334
  C   -7.40087054870603     -1.09132636331919      3.23810336125971
  C   -7.26023054937062     -3.11947274364270      1.83311835177756
  C   -7.12699025605307      0.30142714956963      3.43702069836268
  C   -6.84704293530086     -3.76454728601963      0.62183368817689
  C   6.42598364354858      3.65255436692850      1.48956962162171
  C   4.12306811112732     -0.29509280869019      3.40040518249423
  C   5.74895571301197      3.01920056213574      2.58282302917516
  C   4.59890577105617      1.04949279521122      3.53518560857347
  C   -4.39612778123194      3.28389402183976     -0.60358190263359
  C   -4.14337351577130     -0.77361066501115     -3.42925424675725
  C   -3.99687960089729      2.64248074771242     -1.82063852831818
  C   -3.87744707523788      0.62027743711780     -3.23261215704301
  C   6.69338513278959     -0.50774508877771     -3.56307024717381
  C   5.53559481266672     -2.47437296121137     -2.61243026919270
  C   7.18238427511025      0.83221910016302     -3.42464977691873
  C   4.86415083051796     -3.10848418389202     -1.51659611372902
  C   -5.75756790543238     -3.66175639455858     -1.59550035017658
  C   -6.16975468531068      2.43483388531262      2.62922663047632
  C   3.83516045630247     -2.33769334026938      2.03950629428998
  C   7.29080366004555      3.58010491466035     -0.82720181088807
  C   4.01887783953258     -3.04221126850918      0.80592828507395
  C   7.48056483130339      2.87234174094932     -2.05982525495321
  C   -5.07806888764404     -2.91146172930632     -2.61112189687930
  C   -5.48155172408668      3.18180912721803      1.61660410758627
  C   -4.47066249262093      5.28942097357632      0.82593398149503
  C   -3.95341105930895     -2.80575566607136     -4.80601231522685
  C   -6.68895378219827     -5.79206524784433     -0.76466891299971
  C   -7.24463744304951      2.31795302976268      4.84807879053482
  C   2.92357901649734     -2.23063266273221      4.33060647671569
  C   7.56795034774150      5.61756958964232      0.53749596109833
  C   8.32741275789859      2.79154072558765     -4.37797353800275
  C   3.65575390669609     -5.04181954561883     -0.59062512708973
  C   -2.85601419225031      2.72175046310973     -4.00402527429395
  C   6.37570220735036     -2.52994080255618     -4.93095210181957
  C   4.85306761348920      3.09729498688081      4.87892639448942
  C   -8.33319562902538     -3.22633162290940      4.04706527479118
  C   -5.17633497284389      4.57313764400810      1.82822341417458
  C   -4.63673818029757     -3.56222605921159     -3.81789427825513
  C   -7.10877646216952     -5.16306680469896      0.43620142960351
  C   -7.52702829863579      0.94153217303078      4.65774143921568
  C   3.41497154007101     -0.90936535734168      4.48600026337125
  C   6.90117910568070      5.00003686881013      1.62604531322869
  C   8.15112629839188      3.50816257098600     -3.16476494914877
  C   3.48338085437503     -4.36760033760269      0.64618199601710
  C   -3.69315388098225     -1.42210448747350     -4.62750366253335
  C   -4.07490066038930      4.66500106089795     -0.38399905972344
  C   -6.57012847817785      3.07620822868605      3.85496340085888
  C   -6.01126465649708     -5.06739771779761     -1.78031048056942
  C   7.76890704140392      4.93142289710304     -0.68908241232013
  C   3.12077721880863     -2.95507383706418      3.12606886215430
  C   4.34407322560144     -4.43640442533533     -1.67119753127360
  C   7.85058441095403      1.46342562964943     -4.52655454359298
  C   -3.15144871821598      1.35254401822909     -4.22907913361975
  C   -3.26885271959536      3.38195041858136     -2.81691204495735
  C   5.70320420006053     -3.17510566334063     -3.85874722919137
  C   6.87204438745221     -1.20665838619832     -4.80378185225000
  C   4.37615208162851      1.76615598828145      4.75855694754591
  C   5.53952069432429      3.73722203192181      3.81254331877034
  C   -7.93356116847163     -3.87582478755213      2.84993808906838
  C   -8.07665765382529     -1.84577444710210      4.26091553087327
  C   -8.46407856105895     -1.16609063222710      5.46544267635139
  C   -8.18539474533689     -5.27154207334636      2.63177817769625
  C   -8.20258062557416      0.17024228204119      5.66070502641674
  C   -7.78839489074527     -5.89149474509976      1.46912712185275
  C   6.68888122203397      5.69189514432122      2.86433194891140
  C   3.20665629703575     -0.16763607630607      5.69640211630474
  C   6.03422936260699      5.08209819649880      3.90947010937769
  C   3.67167978046936      1.12061426625224      5.82904185895755
  C   -3.35336028466041      5.38286631903829     -1.39413637390587
  C   -2.98234396221179     -0.65870427686260     -5.61307115894521
  C   -2.96903978987567      4.76203627240049     -2.55985465573878
  C   -2.71940369786799      0.67806339907580     -5.41914038498769
  C   7.54769358280756     -0.54927833598650     -5.88575128265701
  C   5.17669172107892     -4.50684613614944     -3.96817967188478
  C   8.01955036141018      0.73644031732288     -5.75237337564752
  C   4.52251985099899     -5.11500960850385     -2.92123267293346
  C   -5.55727088530214     -5.68395269855827     -2.99457630382949
  C   -6.26871661477190      4.46896655359474      4.02294029436399
  C   2.60510460457790     -4.27894768071522      2.93470756054336
  C   8.43219170788024      5.53507953513239     -1.80959938041416
  C   2.77546404318292     -4.95336907458885      1.74730823198363
  C   8.61491377004574      4.85523955115749     -2.99171317317430
  C   -4.90051952501395     -4.96542706582368     -3.96673996974296
  C   -5.60215916958362      5.18386363391396      3.05469128130034
  C   1.94341904472307      0.01399644907271     -0.14316239509428
  C   0.74980656436139     -1.63371363639522      0.98227881542148
  C   0.86976429614450     -0.49629312988597      1.85787063012285
  C   1.60742920253862      0.52230074284364      1.16155564326938
  C   -1.34979368407504     -0.15129982588200     -1.42539939803502
  C   -2.02110234688369     -0.45815266962490     -0.18937571225861
  C   -1.93990550532846      0.69906396244918      0.66238759674007
  C   -0.84781270417008      1.19465559617279     -1.33218623798883
  C   1.43729933511559     -1.33100430732752     -0.24711891228761
  C   -1.21448568762802      1.71995967171163     -0.04323115196126
  O   -6.96604794031478     -7.11910364053738     -0.88579792392543
  O   -7.64894340892852      2.86547833752262      6.02684770784007
  O   -4.13653060062887      6.60081091651633      0.97249546285617
  O   -3.50852657747872     -3.36460441247829     -5.96469207822036
  O   8.95522009245891      3.33690661164343     -5.45537878502573
  O   3.16936382836973     -6.29636130448356     -0.80341277735323
  O   2.24768318519273     -2.75615363447118      5.38835872209244
  O   7.99742902214781      6.89503087055530      0.73111494271723
  O   -8.96823277722564     -3.99302192083478      4.97382072110803
  O   4.61639390851979      3.72575123235701      6.06195317408331
  O   6.57371832299919     -3.14356497863819     -6.12890297922318
  O   -2.15122241488438      3.36051397198481     -4.97612406695087
  H   -6.66865937037463     -7.42459609763791     -1.76192709322237
  H   -7.39094718416676      3.80491423486888      6.04335816893028
  H   -4.41139589039727      6.89990254574286      1.85814129323270
  H   -3.75897999931165     -4.30610687425329     -5.97709534711162
  H   9.24501748027899      4.23904891914347     -5.22865944988435
  H   2.75778304574119     -6.61603644282570      0.01994829407801
  H   1.95371427312103     -3.65642481246676      5.15953352972562
  H   8.44763148568699      7.20139433581446     -0.07685473138658
  H   -9.18977159607092     -3.43577841071196      5.74232948484915
  H   4.98123434793951      4.62838183920533      6.01428528860967
  H   6.21438999924575     -4.04831395787160     -6.07869720006074
  H   -2.00325886547994      4.28380540557994     -4.70081918652804
  H   2.50582042985668      0.54504544428972     -0.92119887636056
  H   0.24660016427625     -2.58109550976310      1.21208045482866
  H   0.46991074715214     -0.42225220389453      2.87645521888791
  H   1.87503447730704      1.51070675182769      1.55428962028103
  H   -1.23194061435022     -0.82559193498357     -2.28338803245220
  H   -2.50602315402262     -1.40892008431755      0.06386907614609
  H   -2.35316333370501      0.78245652677459      1.67496873297605
  H   -0.27902320758131      1.72364022404579     -2.10686764252539
  H   1.85598252787283     -1.73964316364035     -2.19397173870768
  H   0.87873586637816     -2.87630359949534     -1.44526996393236
  H   -0.97764233554990      2.72181862990277      0.33540976991719
  N   1.64399904813572     -2.21079355900647     -1.31097854154413
  Fe  -0.07852580552756      0.02879526116351      0.14611955311361
  H   -3.11293057585513      6.43921886742031     -1.21533796718233
  H   -2.41592006062819      5.36312907003403     -3.30198201691882
  H   -5.40994301063603      6.25306683875241      3.24591589659387
  H   -6.57053901562286      5.00350227624099      4.93940835539658
  H   -8.50524573027067      0.67096550274945      6.58993745910514
  H   -8.98536004507385     -1.70974944984037      6.27216899667547
  H   -2.16765302362392      1.25475795127370     -6.17369961649275
  H   -2.64735031924338     -1.16881528229456     -6.52622434295889
  H   -4.57509315667111     -5.50557076257052     -4.87187021706852
  H   -5.71890718492593     -6.76058263987746     -3.17245650078156
  H   -8.70521278314645     -5.83601380200263      3.41764429086455
  H   -7.98426093405546     -6.96048987438341      1.31014564000550
  H   5.28207799445585     -5.07566692519906     -4.90815421134857
  H   4.12358258160727     -6.13289384295652     -3.02584424056742
  H   2.34312438370596     -5.96509265101010      1.66521247070894
  H   2.04819431888677     -4.78888023070310      3.73886659263227
  H   7.67920273501310     -1.09878235795340     -6.82771091464222
  H   8.53588969997462      1.23204712883302     -6.58549612909660
  H   9.13009911699000      5.38242464424913     -3.81239102310652
  H   8.81109836013846      6.56931057485583     -1.74816748333404
  H   7.05991949155472      6.72108995504579      2.95922468041936
  H   5.89979569868896      5.66239817009634      4.83867656292645
  H   3.50853740719210      1.68225371359422      6.75873784880106
  H   2.66361948140467     -0.65339815799141      6.51831762847744
