155
Coordinates from ORCA-job 5c_noOH_dehydrog_FeIV_opt_tight
  C   -5.79967059346006      1.09981278418605      0.42961820094510
  C   -5.63524366586096     -0.90238870871960     -1.02271536354676
  C   -6.34056255240391     -1.67516036848169     -0.03638307033014
  C   -6.51364913428963      0.33102586201424      1.41046911587626
  C   5.29891026852200     -0.19374845562446      0.97163268441024
  C   6.62260299263121      1.70121658937487      0.05579791171895
  C   6.86565551123003      0.95560916335445     -1.14043678864289
  C   5.53945808001602     -0.93844968488766     -0.22550687958774
  C   -5.36749162634748      0.48600124908080     -0.79125717835375
  C   6.31448989262973     -0.36373836289862     -1.28744753326940
  C   5.83083965240870      1.13387931579644      1.10913723049566
  C   -6.78518697622898     -1.05657652269424      1.17779250139197
  C   -5.52143525721074      2.48561150314741      0.66968553814773
  C   -5.19632292978633     -1.51899680156322     -2.23624594250715
  C   -6.60402525789914     -3.06182371666386     -0.26619900382995
  C   -6.95915596221314      0.95186154266049      2.62374899017831
  C   4.52290811091457     -0.76922836926547      2.03459751218815
  C   7.17534148601691      3.02070967485617      0.20337759217592
  C   7.66115364487694      1.52198038267148     -2.19428994913698
  C   5.00243977992394     -2.26489889939218     -0.36463315119357
  C   -4.66610335524182      1.25365135170105     -1.77921239545461
  C   6.54575318011748     -1.10700721039886     -2.49225097096223
  C   5.57277052004548      1.88812389313798      2.30184703748079
  C   -7.50040436335570     -1.82782178991997      2.15326574221636
  C   -7.95290651860174     -1.20507906830020      3.36535173691087
  C   -7.76883537833767     -3.22117128556251      1.92092880152134
  C   -7.68077433649691      0.18751931403283      3.59989123610569
  C   -7.31591686547965     -3.84367184102490      0.70559731690938
  C   6.92410824118004      3.77258177086940      1.39672991842688
  C   4.25067557523595     -0.01278841498592      3.22190621219302
  C   6.11638945774844      3.21111443260620      2.44666319964242
  C   4.77393165170897      1.32447368020981      3.35569609586659
  C   -4.80508389216157      3.25360008749949     -0.30700904055864
  C   -4.49489165848032     -0.75905603379170     -3.23265524570254
  C   -4.37829570132357      2.63776340558466     -1.53453933086896
  C   -4.23091277173002      0.63679319906198     -3.00268907155800
  C   7.33356787231854     -0.53952310503216     -3.55212769351799
  C   5.98962220203029     -2.42496106561031     -2.64139742785394
  C   7.89832534638880      0.77875792595298     -3.39831851889730
  C   5.21684772120368     -3.00163400177092     -1.57365772996244
  C   -6.15445537820791     -3.67546203102819     -1.47894353999969
  C   -6.68528151440109      2.33984511926585      2.86106011920752
  C   4.00617910601950     -2.10209517435361      1.90371618004659
  C   7.97982314596382      3.58524391079580     -0.84111825411979
  C   4.24486823115111     -2.84867699308574      0.70331666880591
  C   8.22376214668546      2.83552922517116     -2.04236468267173
  C   -5.45503179449120     -2.90970860143097     -2.45589752694580
  C   -5.96262500646698      3.10549251931316      1.88634423041658
  C   -4.95867703061398      5.27690227293807      1.16429302401752
  C   -4.31253386021389     -2.80731085744223     -4.65651888802975
  C   -7.11218743452047     -5.85289921509028     -0.77147461722725
  C   -7.86591738682627      2.21603489756285      5.06100886609140
  C   2.94481594394466     -1.93323839647175      4.15830076896958
  C   8.30128452449298      5.67477042948873      0.50996574749024
  C   9.27866298753485      2.66406451435275     -4.30747870145341
  C   3.89835770604660     -4.92392104978796     -0.64835105652869
  C   -3.21542533042791      2.79720793522459     -3.74488534131778
  C   7.00662561244726     -2.61000438521502     -4.91795817820524
  C   5.04882164429991      3.41801154618220      4.69678113297763
  C   -8.95474123657617     -3.37274312536005      4.12035942167787
  C   -5.67340346980323      4.51041911269404      2.11489679547576
  C   -5.01464880601514     -3.55526308048497     -3.66483501022868
  C   -7.56625400616875     -5.25830857274069      0.43371421482888
  C   -8.12999481296604      0.85037076008855      4.82437199620206
  C   3.44484250455657     -0.61477582402784      4.28027538611331
  C   7.50091990920826      5.11106669396104      1.52523261236821
  C   9.03829544755963      3.38316682109782     -3.12467589114968
  C   3.70527129154218     -4.19387107950074      0.53645284501653
  C   -4.04716471467987     -1.43165677556654     -4.45221373189129
  C   -4.52571485933104      4.66291848006143     -0.02894877810832
  C   -7.14751792374383      2.95697085391355      4.09294214550071
  C   -6.40273076846159     -5.07112463560623     -1.73197188644000
  C   8.53731368947489      4.92585914775339     -0.65547430157967
  C   3.22052946243392     -2.66741762380000      2.99268169584407
  C   4.64358639134886     -4.34386600348241     -1.69512113295600
  C   8.71308186639604      1.37274416539749     -4.45318684470299
  C   -3.49958773851724      1.43443963313274     -3.98429764480457
  C   -3.64771691956073      3.39438575619469     -2.54075447380817
  C   6.23053561287547     -3.15849261216531     -3.87355859293310
  C   7.55723328722485     -1.31304874514060     -4.76698567552675
  C   4.51402737043269      2.11490778437488      4.55300866331935
  C   5.84251796974063      3.95914099779619      3.66192282655127
  C   -8.50261227638439     -3.98615786346769      2.92628213412206
  C   -8.68472920589860     -2.00298761004143      4.33965942496855
  C   -9.07935137124124     -1.27435601739312      5.49317950420654
  C   -8.67383778330846     -5.32514791269054      2.53988280433520
  C   -8.81392707604869     -0.05860476321908      5.64184776162851
  C   -8.27634314567945     -5.86664024768104      1.48218894998632
  C   7.13571805239788      5.67556030443809      2.75201152067791
  C   3.26349319952866      0.25944299154572      5.36495504660840
  C   6.43668133442407      5.25080729981485      3.70170070575073
  C   3.71963693845258      1.41968811209268      5.47987256016594
  C   -3.81581340040295      5.22894200516461     -1.09629366541704
  C   -3.35956121400707     -0.54565187928311     -5.30248762009533
  C   -3.41011939015255      4.74977045432829     -2.18135430788806
  C   -3.12672605179814      0.66882687525879     -5.10394030908768
  C   8.35219532809469     -0.62402867160634     -5.69691959893734
  C   5.62974900990471     -4.44651092283037     -3.90538916335978
  C   8.84318475605865      0.51951878181643     -5.55881258006085
  C   4.96277574297415     -4.89344742080959     -2.94280075963752
  C   -5.93341359833426     -5.63835193067210     -2.94174431921361
  C   -6.80924753103264      4.32684962944591      4.20405606843415
  C   2.76180887382149     -3.98233295451313      2.72030322686428
  C   9.30537127904903      5.33080438812668     -1.77285054163695
  C   2.96358525659244     -4.63641206622348      1.66240382166401
  C   9.51866190122447      4.68003204062878     -2.81922148850995
  C   -5.28371349440348     -4.93467262960778     -3.84479243368443
  C   -6.16609688153998      5.00511590609288      3.34710026661402
  C   1.98001552848218     -0.13149813835402     -0.55513896866804
  C   0.84341780483281     -1.77760697750585      0.62694447642845
  C   0.94417345967873     -0.61421624354601      1.47064581519545
  C   1.64525097429020      0.40297389239109      0.73932958556968
  C   -1.50393231784153     -0.26899680893898     -1.72359596012477
  C   -2.06467833262168     -0.58753551011711     -0.44355460623743
  C   -1.89000013067045      0.55349040880031      0.41569601796422
  C   -0.96240470755964      1.05560459799996     -1.65682881726493
  C   1.56772753600150     -1.51251175968596     -0.59249136406935
  C   -1.20674879910209      1.57102478872630     -0.33552051150575
  O   -7.34329491159579     -7.13301980375601     -1.01104693191637
  O   -8.30298610643134      2.76505540080518      6.19661645748314
  O   -4.68118662205700      6.56896312229540      1.36112483508742
  O   -3.90851078687248     -3.41468695088664     -5.76252609894544
  O   10.01842591332519      3.13878133574751     -5.31400488345284
  O   3.39549980946136     -6.15689029017270     -0.82843959248003
  O   2.21305610537078     -2.43002801999142      5.16455215830002
  O   8.79625990366551      6.90462462254177      0.70778813666788
  O   -9.62404483296755     -4.11511918787792      5.00151024208306
  O   4.78799155609572      4.09452926648909      5.81485741594457
  O   7.24618767592805     -3.27309450124231     -6.04779838767605
  O   -2.53055141427774      3.48261901506034     -4.66730999778531
  H   -6.94368702630821     -7.31493800496500     -1.90639352355284
  H   -8.05056158809572      3.71537745172841      6.20464085104580
  H   -5.07053055418532      6.84128106556949      2.22257063311547
  H   -4.22492753193043     -4.35766223649041     -5.67099591048227
  H   10.35497573260071      4.03028609964527     -5.08178930025676
  H   2.97911560349419     -6.44833115813878      0.01131870053674
  H   1.98828113642976     -3.36269651132453      4.95524569803829
  H   9.33880172893840      7.16713813976399     -0.06511150824315
  H   -9.87733073619793     -3.55139544470805      5.76619320708071
  H   5.24552371020620      4.96441582240573      5.76684694800118
  H   6.82015010852155     -4.15775525264043     -5.99233328589562
  H   -2.45856526012423      4.41593201009000     -4.36720441888804
  H   2.52072655580678      0.39166904170042     -1.35312880251692
  H   0.37601080822600     -2.73328186807062      0.89266696505470
  H   0.54909516524768     -0.52692326518110      2.48992407161770
  H   1.88431888509155      1.41203181220024      1.09590561495665
  H   -1.45736222350201     -0.93822107044771     -2.59197721814858
  H   -2.54589876223191     -1.53397746361339     -0.16831686686806
  H   -2.21698012060704      0.62902733783614      1.45980426974303
  H   -0.45129773373800      1.58315199882108     -2.47148730301727
  H   2.15391167970204     -2.05858621833714     -2.50013258315386
  H   1.29280676552001     -3.28378826876583     -1.62747269877202
  H   -0.91798148684352      2.56337563105637      0.03147687422055
  N   1.78027871010860     -2.38993091663577     -1.61266021565033
  Fe  -0.06055837317989     -0.13308610518529     -0.21674910642010
