102
Random GO 4
C -0.0124754 0.00087743 7.65243
C 2.4637 1.39557 7.89784
C 1.21016 2.17305 7.59636
C 3.70668 3.56922 7.64785
C 2.48358 4.2786 7.48039
C 5.04056 5.7825 7.86642
C 3.82499 6.4946 7.36687
C 6.12788 7.94888 8.44307
C 5.05877 8.66064 7.53791
C 7.45695 10.0657 8.1458
C 6.21568 10.8216 7.99978
C 8.69108 12.1981 8.34417
C 2.49162 0.0597067 7.13519
C 4.96855 1.43077 7.88416
C 3.73942 2.16895 7.73025
C 6.10422 3.53715 8.48437
C 4.8945 4.32803 8.11514
C 7.4073 5.7861 8.92112
C 6.16754 6.44414 8.26139
C 8.69912 7.93495 8.2639
C 7.47024 8.64202 8.21333
C 9.9349 10.0777 8.13288
C 8.69614 10.78 8.15536
C 11.1908 12.3488 8.33688
C 4.94049 -0.0408619 7.78758
C 7.47438 1.38293 8.03021
C 6.15548 2.10092 8.1413
C 8.38019 3.42705 9.21988
C 7.36174 4.24792 8.7891
C 10.0702 5.77933 8.48357
C 8.68467 6.39837 8.17107
C 11.2637 7.94464 8.44685
C 9.93562 8.6676 8.23327
C 12.4697 10.1563 8.20208
C 11.1769 10.9109 7.78404
C 13.6805 12.3064 7.87138
C 7.36611 -0.0662104 8.56599
C 9.67558 1.27694 9.08265
C 8.55666 2.05105 8.84479
C 11.475 3.73992 8.73643
C 10.3144 4.51278 9.05654
C 12.4889 5.80521 7.9375
C 11.2466 6.4693 8.11965
C 13.7279 7.95374 7.72262
C 12.399 8.6805 7.68694
C -0.0126715 10.1531 7.56756
C 13.7158 10.8801 7.78293
C 1.20362 12.2739 7.42152
C 9.87939 -0.068055 8.56222
C 12.5461 1.5073 8.33722
C 11.5923 2.33632 8.98866
C 13.7363 3.64229 7.79884
C 12.553 4.39268 8.07987
C 0.0159309 5.80086 7.5618
C 13.7191 6.52875 7.7249
C 1.24882 7.93097 7.45175
C 0.00655718 8.66368 7.57611
C 2.49665 10.1088 7.21563
C 1.21262 10.8637 7.38474
C 3.75224 12.3074 7.5146
C 12.4314 0.0429294 8.23892
C 0.00456331 1.46917 7.65884
C 13.7185 2.19895 7.87653
C 1.24061 3.59777 7.51284
C 0.0167991 4.34644 7.57373
C 2.49959 5.74175 7.23816
C 1.23639 6.51034 7.41909
C 3.72903 7.95771 7.53241
C 2.52417 8.63012 7.43882
C 4.89299 10.0948 8.06691
C 3.77014 10.8484 7.35984
C 6.18182 12.2032 7.99263
H 6.59455 -0.731678 10.2597
H 11.1829 10.2523 5.9499
H 11.7541 8.77264 10.1504
H 8.99569 6.60082 6.21162
H 5.03948 9.26351 9.8264
H 4.89079 9.08861 5.63633
H 7.20332 0.973411 6.11454
H 2.68308 -0.440464 5.25501
H 2.69767 1.80983 9.82807
H 6.81526 6.92304 10.3877
H 13.4113 10.1874 9.96265
H 12.7854 8.63355 5.73254
O 7.12498 0.0592439 10.006
O 11.1446 11.1575 6.35298
O 11.5329 7.84232 9.86823
O 8.45373 6.00903 6.78007
O 4.49346 10.1075 9.44043
O 5.58354 8.65192 6.18925
O 7.92011 1.38695 6.6478
O 2.51085 0.411252 5.72241
O 2.39852 1.02411 9.31651
O 7.47272 6.13855 10.298
O 12.4709 10.2149 9.67594
O 11.9665 8.64909 6.27688
O 5.11698 3.9202 9.52936
O 3.3157 10.4582 5.99289
O 3.31171 6.05917 6.0569
O 9.41169 4.01016 9.95627
O 10.7218 1.7509 9.8842
O 5.82834 8.09052 9.82421
