342
Semi ordered GO 4 in water
C 14.5543 0.0722914 6.70277
C 12.0878 1.52526 6.45613
C 13.3013 2.18514 7.14169
C 10.7974 3.73264 6.61717
C 12.069 4.35758 7.30794
C 9.5386 5.82713 6.919
C 10.8189 6.53369 7.34097
C 8.26607 7.96232 7.37608
C 9.56354 8.73279 6.91086
C 7.03541 10.1414 7.29188
C 8.31118 10.8972 6.8681
C 5.77293 12.3314 6.93478
C 12.0591 0.0502015 6.83226
C 9.5994 1.56611 6.87247
C 10.7816 2.23362 6.75183
C 8.23288 3.69935 6.72881
C 9.49905 4.35265 7.23064
C 6.9595 5.81263 6.85208
C 8.25694 6.54921 6.82049
C 5.69336 7.91482 7.50921
C 6.97036 8.66784 6.92936
C 4.51252 10.0864 6.9477
C 5.74148 10.8729 7.24521
C 3.28789 12.312 6.68149
C 9.56594 0.122814 7.1907
C 6.98926 1.48064 6.52871
C 8.3088 2.25048 6.54878
C 5.74606 3.64571 6.59749
C 7.00993 4.37583 6.67802
C 4.50022 5.79673 6.73748
C 5.74598 6.49733 6.928
C 3.23825 7.97004 6.84292
C 4.48441 8.71053 7.03347
C 2.03684 10.1555 7.12235
C 3.26729 10.805 6.45338
C 0.785863 12.291 6.67607
C 6.9679 0.0661109 6.92457
C 4.50403 1.51131 6.67568
C 5.72971 2.23723 6.63132
C 3.2612 3.65564 6.61463
C 4.50301 4.37003 6.6141
C 2.01831 5.80883 6.67266
C 3.25161 6.52476 6.72679
C 0.773329 7.97957 6.77814
C 2.01292 8.6652 6.83301
C 14.5408 10.161 6.82348
C 0.758653 10.881 6.76595
C 13.2933 12.3058 6.80447
C 4.50525 0.0704516 6.74176
C 2.03457 1.48987 6.65781
C 3.26452 2.22304 6.63843
C 0.784418 3.64791 6.68859
C 2.01318 4.37334 6.64065
C 14.5384 5.82674 6.80473
C 0.757392 6.52563 6.72652
C 13.2974 8.01164 6.97719
C 14.543 8.71711 6.85197
C 12.0626 10.172 7.01273
C 13.2986 10.8823 6.87203
C 10.8457 12.31 7.03876
C 2.04478 0.0616055 6.66477
C 14.5768 1.48055 6.75716
C 0.79194 2.21203 6.69338
C 13.3304 3.67024 6.91211
C 14.5197 4.36788 6.77869
C 12.0963 5.83678 7.10478
C 13.2869 6.54317 6.97021
C 10.827 8.02164 7.37058
C 12.0952 8.73698 7.09865
C 9.5539 10.1821 7.47091
C 10.8434 10.9011 7.11797
C 8.25811 12.3613 7.26223
H 10.2095 8.08457 5.06068
H 9.10442 7.62064 9.10422
H 6.86322 9.30872 4.89426
H 9.35471 11.0237 9.24923
H 10.385 4.25649 9.02339
H 8.86624 10.1913 5.11878
H 13.9425 2.339 9.0552
H 11.9006 0.437162 4.4833
H 12.2781 3.23274 8.96215
H 11.5221 3.55768 4.80882
H 3.8149 11.1686 4.48501
H 1.68807 9.5804 9.03683
O 9.6793 8.85676 5.49009
O 8.18476 7.82445 8.79563
O 6.80065 8.50043 5.51582
O 9.50135 10.1071 8.89901
O 9.4382 4.19454 8.65888
O 8.37206 11.005 5.44434
O 13.1162 1.93989 8.58825
O 12.2641 1.67084 5.03116
O 11.9509 4.19078 8.80195
O 10.8455 4.1508 5.23108
O 3.11212 10.5711 5.02529
O 2.16071 10.3488 8.55462
O 8.87366 12.8058 8.51659
O 6.42664 10.5301 8.53072
O 10.78 7.28214 8.63324
O 5.51354 7.65259 8.87958
O 7.74052 1.75186 5.27599
O 9.03635 6.22084 5.61386
H 10.2499 10.7962 2.42339
H 10.2291 12.339 1.79967
O 9.9156 11.7584 2.58772
H 11.3583 6.1801 4.51394
H 12.1571 7.50845 4.11852
O 11.2454 7.13683 4.31015
H 5.36116 4.98599 0.1939
H 5.40374 6.43515 0.887699
O 5.92665 5.5954 0.744479
H 3.49861 6.02019 -0.930975
H 2.18485 6.60056 -0.148406
O 2.74662 5.7552 -0.309146
H 4.86819 2.53484 0.206225
H 5.81895 1.391 0.754235
O 4.91731 1.79478 0.899769
H 12.4565 4.36726 0.14488
H 13.8991 3.90887 0.701561
O 13.3013 4.73722 0.534358
H 7.00911 9.8886 2.49218
H 6.57339 11.0001 3.51938
O 6.67707 10.0196 3.42855
H 2.85409 4.61031 2.96891
H 3.13451 5.97774 3.78443
O 3.34792 5.00694 3.76434
H 14.2849 3.62613 3.63519
H 13.7106 2.23871 4.22979
O 14.4571 2.62262 3.67278
H 1.50758 3.46798 1.36055
H 2.5748 4.53977 0.86901
O 2.40038 3.85223 1.57708
H 1.47378 12.735 3.56356
H 1.86881 11.2952 4.2165
O 1.23401 11.7404 3.56969
H 2.09605 1.03848 1.5503
H 3.45516 0.888088 0.764914
O 2.47902 0.645006 0.711166
H 7.57651 3.97646 3.42778
H 8.95295 4.63383 3.81233
O 8.5503 3.97104 3.20185
H 5.86394 4.74319 2.27256
H 4.86793 4.71445 3.514
O 5.84984 4.50058 3.25355
H 9.42337 6.98657 1.35474
H 8.3291 7.28766 2.55104
O 9.02756 7.69898 1.94177
H 1.85351 11.8389 0.678315
H 1.53074 11.1726 2.03734
O 1.71183 10.9294 1.06998
H 14.1146 8.17106 3.02074
H 12.6118 8.77144 2.75145
O 13.3127 8.62389 3.45623
H 10.8767 12.1609 3.52445
H 12.5551 11.8516 4.00631
O 11.6653 12.3712 4.21748
H 11.139 9.61344 1.19264
H 10.3285 8.69939 2.23808
O 11.02 9.44031 2.17603
H 4.88895 8.9273 1.5724
H 5.64793 7.82134 2.45978
O 4.85017 7.96741 1.86057
H 11.2603 6.91382 0.144826
H 10.6054 5.48835 -0.165974
O 10.3716 6.43496 0.0518814
H 3.3871 10.6616 1.11497
H 4.7086 11.1923 0.440269
O 4.39251 10.7055 1.25176
H 1.32709 7.59423 3.0445
H 0.749655 7.60552 1.59567
O 0.475924 7.37594 2.54024
H 7.01245 9.19073 0.118454
H 8.20721 8.84694 1.14358
O 7.60628 9.6096 0.834296
H 14.5404 2.40596 1.93603
H 14.6148 1.95575 0.354002
O 14.8221 2.70071 1.01718
H 9.89699 2.77014 3.05026
H 11.1497 2.05144 3.6906
O 10.7772 2.36295 2.82111
H 3.62031 7.94418 2.90627
H 3.02362 8.64436 4.21075
O 2.89056 7.85802 3.62264
H 15.2233 10.0251 0.591558
H 13.8166 10.7196 0.649055
O 14.2765 9.89665 0.276171
H 1.00737 1.94292 3.57588
H 2.64802 1.74206 3.5515
O 1.76531 1.32854 3.31736
H 10.5941 0.80079 0.0448346
H 10.868 1.31828 1.58012
O 10.9642 0.523176 0.950663
H 12.5148 12.765 1.0385
H 13.3982 11.9083 2.07925
O 13.3509 12.2089 1.1241
H 4.6169 1.93947 2.47538
H 5.00234 2.49451 3.8793
O 4.44808 1.78835 3.47086
H 8.30182 2.20634 0.618087
H 8.73167 3.52104 1.43772
O 8.79936 3.08459 0.544523
H 0.761122 8.08713 -0.705413
H 2.2284 8.4829 -0.270814
O 1.4087 7.94454 0.05446
H 14.5518 5.86016 3.09993
H 13.3896 5.10003 2.41153
O 13.8325 5.19339 3.29939
H 8.03388 12.9625 0.219539
H 7.46462 13.4094 1.65141
O 7.45227 13.6864 0.655485
H 7.65487 13.4175 3.88609
H 8.41629 12.3173 3.04396
O 7.55098 12.8344 3.09481
H 14.7226 11.41 3.70959
H 13.6436 10.1383 3.61197
O 13.7362 11.1631 3.5955
H 6.93762 7.37346 4.28709
H 6.5643 6.03217 3.46998
O 6.91746 6.97261 3.36868
H 4.60666 12.9757 3.59054
H 4.58223 11.6109 2.66763
O 4.62931 11.9744 3.61542
H 8.31068 3.93396 9.87267
H 7.7695 4.12447 11.3903
O 7.67373 3.57251 10.5558
H 9.69071 8.14548 11.9453
H 9.52095 7.00515 13.0521
O 9.2103 7.26527 12.1265
H 5.00541 13.0054 12.8574
H 6.13107 12.8228 13.9513
O 5.40485 12.3256 13.4822
H 8.18855 3.98338 13.804
H 7.35918 5.31389 13.5794
O 7.73796 4.55254 13.0736
H 13.3648 8.36738 14.6841
H 13.3638 6.78081 14.9414
O 12.7798 7.55946 14.7904
H 1.69079 4.70559 11.3994
H 2.06511 4.87431 12.9862
O 1.58968 4.26519 12.2997
H 9.19018 1.17765 12.5761
H 10.6561 0.742454 12.1897
O 10.1372 1.2184 12.9013
H 3.92316 9.66731 10.4224
H 4.52045 8.31962 9.81836
O 3.82802 8.67808 10.5104
H 5.63406 10.8511 10.8352
H 6.01909 11.4232 12.2692
O 6.32598 10.7737 11.5485
H 3.49325 11.2351 9.35994
H 3.32872 11.6979 10.8497
O 4.05055 11.4538 10.1575
H 14.5808 10.8066 13.2762
H 14.5234 12.4082 12.9743
O 14.7447 11.5041 12.5584
H 3.4481 8.75018 12.276
H 4.38306 8.88342 13.4772
O 3.42163 9.03954 13.2307
H 16.2809 12.8062 10.2624
H 15.571 14.1366 9.82501
O 15.6435 13.1778 9.58198
H 6.17079 3.69769 13.1733
H 4.78379 4.27385 12.759
O 5.19237 3.55814 13.3475
H 7.90478 11.1001 11.1493
H 8.8326 11.6157 12.2617
O 8.84075 11.4744 11.2591
H 6.04004 0.932914 11.2668
H 4.81138 0.174052 10.5946
O 5.0306 0.918414 11.22
H 9.70148 11.438 14.11
H 8.2817 10.815 14.4387
O 8.72356 11.6246 13.9697
H 13.8082 1.61384 12.7078
H 15.367 1.35864 12.9797
O 14.4356 1.08929 13.3039
H 11.0704 10.1034 13.1614
H 12.0205 11.0737 14.0652
O 11.1949 10.5381 14.085
H 1.14648 6.32016 9.78666
H 2.38328 5.38295 9.57632
O 1.39302 5.34757 9.81692
H 0.834434 8.2186 10.7437
H 2.33319 8.25403 10.1549
O 1.34776 8.16969 9.87324
H 12.3497 1.81491 11.2276
H 12.2686 3.04374 12.2737
O 12.8959 2.53822 11.6682
H 15.4485 3.873 9.83346
H 14.3657 3.09865 10.7647
O 15.0026 2.98653 10.001
H 12.8586 5.51565 9.6828
H 13.4766 5.81403 11.1282
O 12.9501 6.22629 10.3709
H 14.6733 7.0598 12.3082
H 14.1159 8.49763 11.8932
O 14.9514 8.02971 12.1789
H 9.9595 10.2204 11.3827
H 11.3574 9.34132 11.1965
O 10.5517 9.50416 11.7921
H 9.96608 5.9734 11.4649
H 11.4022 5.63322 10.9118
O 10.5526 5.18345 11.2124
H 10.5308 3.24645 13.5455
H 10.8612 4.44211 12.4519
O 11.1957 3.95223 13.3302
H 11.0048 0.307082 9.97992
H 12.3461 -0.375097 10.5175
O 11.5995 0.302239 10.7615
H 13.1919 9.72519 10.0881
H 12.8907 8.09986 10.1676
O 12.8443 8.97516 10.6471
H 6.10238 3.41441 9.96818
H 4.87261 2.48614 10.2636
O 5.16224 3.22671 9.65505
H 4.47152 4.59516 9.60555
H 4.59533 6.23601 9.26788
O 3.98702 5.51239 9.64416
H 6.16601 9.5202 12.5549
H 6.32336 7.99471 12.5855
O 6.101 8.74935 13.215
H 13.9416 11.4657 11.1348
H 14.2603 12.1907 9.79399
O 13.5451 11.5943 10.2033
H 6.60388 7.29592 10.3336
H 7.71558 7.03407 11.5045
O 6.73548 6.96296 11.2725
H 8.16506 13.3171 10.9541
H 7.86384 14.9293 10.9891
O 7.7414 14.0482 11.4797
H 13.8768 5.23424 13.4099
H 15.1494 4.90704 12.4722
O 14.2967 5.47147 12.5177
H 2.21488 13.1855 12.0583
H 1.36592 11.8077 12.1104
O 2.15855 12.2515 11.6677
H 1.95614 2.66076 12.5268
H 2.18268 1.51037 13.7048
O 1.91919 1.67269 12.7388
H 4.158 5.73675 11.2085
H 5.42514 6.22347 11.9606
O 4.52411 5.81244 12.16
