     84
  O         5.2574869769       10.7029995909        2.2959419276
  O         1.3915132388        2.5119996490       11.0240579228
  O         1.9321269852       10.7076607908        4.3746918609
  O         4.7168729163        2.5166607394        8.9453080694
  O         0.2591734881        7.7447624121        8.6897557269
  O         6.3898264860       15.9357623629        4.6302441336
  O         3.5844489960        7.7435198655       11.2928990100
  O         3.0645509476       15.9345198372        2.0271010674
  O         2.1413049778       13.4024655845        4.8537349430
  O         4.5076949449        5.2114655426        8.4662649261
  O         5.4663169384       13.3988423669        1.8060002531
  O         1.1826831799        5.2078422069       11.5139996968
  O         5.6885869339        5.6760056510       10.9062385731
  O         0.9604132124       13.8670055688        2.4137614217
  O         2.3644196376        5.6786151276        9.0758850454
  O         4.2845803253       13.8696151461        4.2441150029
  O         6.4363891252       12.2833951798        4.2046352615
  O         0.2126109247        4.0923951757        9.1153646858
  O         3.1118700600       12.2814753460        2.4600435727
  O         3.5371299504        4.0904753411       10.8599563735
  O         4.1483777971       11.1359151054        4.7129299157
  O         2.5006220080        2.9449153201        8.6070701058
  O         0.8239351766       11.1312161648        1.9556804687
  O         5.8250649465        2.9402162167       11.3643195317
  C         5.5963403081        0.3561353394       12.4932949424
  C         1.0526595928        8.5471351461        0.8267051439
  C         2.2716369493        0.3579916823        7.4841279175
  C         4.3773630293        8.5489915218        5.8358718779
  C         4.5259072173       15.9138073091        6.0602243393
  C         2.1230927908        7.7228072750        7.2597755501
  C         1.2010104340       15.9116018089        0.5969945140
  C         5.4479895722        7.7206017015       12.7230055016
  H         4.7396081528        0.6854663414       11.8911079505
  H         1.9093918554        8.8764660980        1.4288922104
  H         1.4153088039        0.6873587359        8.0867754068
  H         5.2336911870        8.8783585151        5.2332243267
  C         1.1318565039        7.4293926480       13.3049739833
  C         5.5171435058       15.6203927475        0.0150261786
  C         4.4560144925        7.4305756685        6.6765506926
  C         2.1929855024       15.6215758400        6.6434490819
  C         6.4951007362        9.2708100778        0.8978716262
  C         0.1538994172        1.0798102245       12.4221284834
  C         3.1711640801        9.2734116862        5.7669760123
  C         3.4778359693        1.0824117846        7.5530239055
  H         1.0818282084        9.4239991858        6.3817567160
  H         5.5671718585        1.2329991515        6.9382432815
  H         4.4059081660        9.4209919996        0.2817502647
  H         2.2430918725        1.2299920271       13.0382497501
  C         0.2461459944        2.2712029426       11.5309495565
  C         6.4028537997       10.4622028928        1.7890505235
  C         3.5699928414        2.2754983214        8.4410571022
  C         3.0790075574       10.4664984562        4.8789428336
  C         0.1001529259        5.8745762427       11.5891501075
  C         6.5488468100       14.0655762101        1.7308498310
  C         3.4242949946        5.8774036928        8.3924662767
  C         3.2247051208       14.0684037467        4.9275336091
  H         2.0496054691        6.8329897880       13.2127499238
  H         4.5993944875       15.0239900118        0.1072501912
  H         5.3733220112        6.8333373384        6.7682097378
  H         1.2756779577       15.0243375445        6.5517900278
  C         2.0227762903        8.8690668711        6.4751372381
  C         4.6262237685        0.6780669122        6.8448627069
  C         5.3471166323        8.8664669622        0.1887073033
  C         1.3018833534        0.6754670501       13.1312927022
  O         0.4902141753        6.1383861545        7.1820521275
  O         6.1587858473       14.3293862070        6.1379478507
  O         3.8143991424        6.1364638417       12.8000367822
  O         2.8346008703       14.3274639209        0.5199631700
  C        -0.0157837739       15.2023218773        0.7601147132
  C         6.6647837257        7.0113217216       12.5598853074
  C         3.3090924048       15.2045071541        5.8981079650
  C         3.3399075477        7.0135070516        7.4218919394
 Al         1.8563380078        4.0865824922       10.0274668567
 Al         4.7926620179       12.2775824731        3.2925330929
 Al         5.1813115245        4.0869671644        9.9483489069
 Al         1.4676885102       12.2779671993        3.3716510491
  N         0.8743046240        7.1676770997        7.7916917807
  N         5.7746953601       15.3586770745        5.5283081469
  N         4.1990605313        7.1658130631       12.1908800189
  N         2.4499394927       15.3568131308        1.1291200242
  H         3.1177809183       12.8499957445        1.6538299736
  H         3.5312191126        4.6589957432       11.6661699935
  H         6.4422776166       12.8545969186        5.0090212330
  H         0.2067224175        4.6635969350        8.3109787126
